Version 4
SHEET 1 880 680
WIRE 176 144 64 144
WIRE 176 224 176 144
SYMBOL cap 160 224 R0
SYMATTR InstName C1
SYMBOL PowerProducts\\LT1054L 352 176 R0
SYMATTR InstName U1
SYMBOL PowerProducts\\LT1054L 16 288 R0
SYMATTR InstName U2
SYMBOL PowerProducts\\LT1054L 0 0 R0
SYMATTR InstName U3
